# Generated by mksrcinfo v8
# Sat Feb 11 16:51:26 UTC 2017
pkgbase = mingw-w64-qt4
	pkgdesc = A cross-platform application and UI framework (mingw-w64)
	pkgver = 4.8.7
	pkgrel = 1
	url = http://qt-project.org/
	arch = i686
	arch = x86_64
	license = GPL3
	license = LGPL
	makedepends = mingw-w64-gcc
	makedepends = mingw-w64-mariadb-connector-c
	makedepends = mingw-w64-postgresql
	makedepends = mingw-w64-pkg-config
	depends = mingw-w64-crt
	depends = mingw-w64-zlib
	depends = mingw-w64-libjpeg-turbo
	depends = mingw-w64-libiconv
	depends = mingw-w64-libtiff
	depends = mingw-w64-sqlite
	depends = mingw-w64-libpng
	depends = mingw-w64-openssl
	depends = mingw-w64-dbus
	optdepends = mingw-w64-postgresql: PostgreSQL driver
	optdepends = mingw-w64-mariadb-connector-c: MariaDB driver
	conflicts = mingw-w64-qt
	replaces = mingw-w64-qt<=4.8.5
	options = !strip
	options = !buildflags
	options = !libtool
	options = staticlibs
	source = http://download.qt-project.org/official_releases/qt/4.8/4.8.7/qt-everywhere-opensource-src-4.8.7.tar.gz
	source = qmake.conf.win32
	source = qmake.conf.win64
	source = qplatformdefs.h
	source = qt-merge-static-and-shared-library-trees.patch
	source = mingw32-qt-4.8.0-no-webkit-tests.patch
	source = qt-dont-perform-ipc-checks-for-win32.patch
	source = qt-4.8.0-fix-include-windows-h.patch
	source = qt-4.8.0-build-qtuitools-dynamically.patch
	source = qt-fix-javascript-jit-on-mingw-x86_64.patch
	source = qt-4.8.1-fix-activeqt-compilation.patch
	source = qt-dont-set-qt-dll-define-for-static-builds.patch
	source = qt4-fix-linking-against-static-dbus.patch
	source = qt-everywhere-opensource-src-4.8.7-gcc6.patch
	md5sums = d990ee66bf7ab0c785589776f35ba6ad
	md5sums = 3759f73b9c872ce692b7067daef134a9
	md5sums = db6257762e051f2b7b18745dca2df43d
	md5sums = 2cba45b6c52c20aa51265d61c1dd9856
	md5sums = 6faad05e8897d3d88cc5b0f5205b2bdc
	md5sums = 91d01b6d31887f78c7933c04544c5758
	md5sums = 28660113fcb05f62ace400187eb8580a
	md5sums = 63dc5a13265ed82b2ba3abd0aa7a59f7
	md5sums = 7f8e12ad3b140e773c7a1f76cdd800f2
	md5sums = 3fe6e419c1f21c59062db1f562c1f9bf
	md5sums = 22fc6f20aa6af060c640fc3b9af888a9
	md5sums = b6d9bcdd1df5115e7063d08bf75c2fd1
	md5sums = 84a802e6619be4f43b2a9be0ec1a11ef
	md5sums = 8ba77cd8f325c38daca8eadc982395a4

pkgname = mingw-w64-qt4

