pkgbase = mingw-w64-qt4
	pkgdesc = A cross-platform application and UI framework (mingw-w64)
	pkgver = 4.8.7
	pkgrel = 2
	url = https://www.qt.io/
	arch = i686
	arch = x86_64
	license = GPL3
	license = LGPL
	makedepends = mingw-w64-gcc
	makedepends = mingw-w64-mariadb-connector-c
	makedepends = mingw-w64-postgresql
	makedepends = mingw-w64-pkg-config
	depends = mingw-w64-crt
	depends = mingw-w64-zlib
	depends = mingw-w64-libjpeg-turbo
	depends = mingw-w64-libiconv
	depends = mingw-w64-libtiff
	depends = mingw-w64-sqlite
	depends = mingw-w64-libpng
	depends = mingw-w64-openssl
	depends = mingw-w64-dbus
	optdepends = mingw-w64-postgresql: PostgreSQL driver
	optdepends = mingw-w64-mariadb-connector-c: MariaDB driver
	options = !strip
	options = !buildflags
	options = !libtool
	options = staticlibs
	source = http://download.qt.io/archive/qt/4.8/4.8.7/qt-everywhere-opensource-src-4.8.7.tar.gz
	source = qmake.conf.win32
	source = qmake.conf.win64
	source = qplatformdefs.h
	source = qt-merge-static-and-shared-library-trees.patch
	source = mingw32-qt-4.8.0-no-webkit-tests.patch
	source = qt-dont-perform-ipc-checks-for-win32.patch
	source = qt-4.8.0-fix-include-windows-h.patch
	source = qt-4.8.0-build-qtuitools-dynamically.patch
	source = qt-fix-javascript-jit-on-mingw-x86_64.patch
	source = qt-4.8.1-fix-activeqt-compilation.patch
	source = qt-dont-set-qt-dll-define-for-static-builds.patch
	source = qt4-fix-linking-against-static-dbus.patch
	source = qt-everywhere-opensource-src-4.8.7-gcc6.patch
	source = qt4-openssl-1.1.patch
	sha256sums = e2882295097e47fe089f8ac741a95fef47e0a73a3f3cdf21b56990638f626ea0
	sha256sums = 71f6e368bd7b14089d1e312f86970d1d5aa649b8e5c7f1f55b7381ec5d841755
	sha256sums = 59d9355c66a810f56d56c3debc2c8f93412cea0e047f08745589e7a2492693e8
	sha256sums = 73916d59566843f6b9ab8b9091a328b6443e09ca0478bb5c0f8a64777b69d4f5
	sha256sums = 321603e3993efabc4dce5c4369d87ad407b7b95a6e63327a7e9ca832ee218666
	sha256sums = 1e0eb85e1a88438ee1f99b5d27b775bf7d077bebf5de2e57fe831d0e39ce6df1
	sha256sums = 08a98118a235681209848dfa204d9bf8a57248b58ad1670b5d1d42677c647cf2
	sha256sums = 5e6a61ced784d7d24c65d81e769b67b8f6066a33581c8b17cdf374a4c723cd23
	sha256sums = 21a36a92b988ed0054d07d97933d0392c4bbd651e005dab43257e0b0480a054c
	sha256sums = fba6cf2b0bd5f6229b21b1cf4adf093c216a10c97255527d71979599b7047be8
	sha256sums = 4a758b90b2768cef4877ae1b5bafca69902b88633a18d5ec3d5c6bb0064510a5
	sha256sums = 9a8ad8953e465a141b53e9b925eb0bcd34832b2fe88d6a5237fb3abcaa4fa1a5
	sha256sums = 5f9286d16cce0a1b1585102074cc06007053751fe7e351773c173be768e6c957
	sha256sums = aaa073195b6fc47ebdc241574da4a29e7ba0a1ae51bdf9a64b866c683f30684a
	sha256sums = ff3ddb5428cd2ff243558dc0c75b35f470077e9204bbc989ddcba04c866c1b68

pkgname = mingw-w64-qt4

